Version 4.1
SHEET 1 964 680
WIRE 416 80 272 80
WIRE 528 80 416 80
WIRE 672 80 592 80
WIRE 832 80 672 80
WIRE 944 80 912 80
WIRE 272 96 272 80
WIRE 272 96 48 96
WIRE 48 128 48 96
WIRE 944 160 944 80
WIRE 272 176 272 160
WIRE 416 176 416 80
WIRE 672 176 672 80
WIRE 48 256 48 208
WIRE 272 256 48 256
WIRE 416 256 272 256
WIRE 672 256 416 256
WIRE 48 352 48 256
FLAG 48 352 0
FLAG 944 160 0
SYMBOL voltage 48 112 R0
WINDOW 123 24 124 Left 2
WINDOW 39 0 0 Left 0
SYMATTR InstName V1
SYMATTR Value SINE(0 10 5)
SYMATTR Value2 AC 10
SYMBOL cap 256 96 R0
SYMATTR InstName C1
SYMATTR Value 0.000000022
SYMBOL res 256 160 R0
SYMATTR InstName R1
SYMATTR Value 16
SYMBOL res 400 160 R0
SYMATTR InstName R2
SYMATTR Value 3300
SYMBOL res 656 160 R0
SYMATTR InstName R3
SYMATTR Value 3300
SYMBOL cap 592 64 R90
WINDOW 0 0 32 VBottom 2
WINDOW 3 32 32 VTop 2
SYMATTR InstName C2
SYMATTR Value 0.00047
SYMBOL res 928 64 R90
WINDOW 0 0 56 VBottom 2
WINDOW 3 32 56 VTop 2
SYMATTR InstName R4
SYMATTR Value 32
TEXT 8 376 Left 2 !.tran 2
TEXT 112 376 Left 2 ;.ac lin 1000 1 10000
