Version 4.1
SHEET 1 1928 792
WIRE 896 -160 784 -160
WIRE 896 -128 896 -160
WIRE 896 -16 896 -48
WIRE 784 32 784 -160
WIRE 784 160 784 112
WIRE 784 160 656 160
WIRE 1040 160 784 160
WIRE 656 176 656 160
WIRE 528 240 208 240
WIRE 608 240 528 240
WIRE 1040 256 1040 224
WIRE 208 272 208 240
WIRE 528 272 528 240
WIRE 1200 272 944 272
WIRE 1200 320 1200 272
WIRE 944 336 944 272
WIRE 208 464 208 352
WIRE 528 464 528 352
WIRE 528 464 208 464
WIRE 656 464 656 272
WIRE 656 464 528 464
WIRE 1200 464 1200 400
WIRE 944 480 944 416
WIRE 656 496 656 464
WIRE 1200 576 1200 544
FLAG 656 496 0
FLAG 896 -16 0
FLAG 944 480 0
FLAG 1200 576 0
DATAFLAG 1040 256 ""
SYMBOL res 512 256 R0
SYMATTR InstName R1
SYMATTR Value 1000000000
SYMATTR SpiceLine tol=5
SYMBOL njf 608 176 R0
SYMATTR InstName J1
SYMATTR Value LSK170B
SYMBOL voltage 208 256 R0
WINDOW 123 24 152 Left 2
WINDOW 39 24 124 Left 2
SYMATTR InstName V1
SYMATTR Value SINE(0 0.0423 4)
SYMATTR Value2 AC 0.0423
SYMATTR SpiceLine Cpar=0.000000000045
SYMBOL voltage 896 -144 R0
WINDOW 123 0 0 Left 0
WINDOW 39 0 0 Left 0
SYMATTR InstName V2
SYMATTR Value 3.3
SYMBOL cap 1024 160 R0
SYMATTR InstName C1
SYMATTR Value 0.0000022
SYMBOL res 768 16 R0
SYMATTR InstName R2
SYMATTR Value 86
SYMBOL res 1184 304 R0
SYMATTR InstName R3
SYMATTR Value 1000000
SYMBOL res 928 320 R0
SYMATTR InstName R4
SYMATTR Value 1000000
SYMBOL voltage 1200 448 R0
WINDOW 123 0 0 Left 0
WINDOW 39 0 0 Left 0
SYMATTR InstName V3
SYMATTR Value 3.3
TEXT 168 520 Left 2 ;.tran 5
TEXT 168 552 Left 2 !.ac lin 5000 1 1000
