Version 4.1
SHEET 1 1928 792
WIRE 704 -48 656 -48
WIRE 656 -16 656 -48
WIRE 784 32 784 -48
WIRE 960 64 944 64
WIRE 944 80 944 64
WIRE 960 112 960 64
WIRE 1312 112 1296 112
WIRE 1440 112 1392 112
WIRE 1296 144 1296 112
WIRE 784 160 784 112
WIRE 784 160 656 160
WIRE 656 176 656 160
WIRE 784 176 784 160
WIRE 1552 208 1392 208
WIRE 1312 224 1280 224
WIRE 1392 224 1392 208
WIRE 528 240 208 240
WIRE 608 240 528 240
WIRE 1280 240 1280 224
WIRE 1440 240 1440 112
WIRE 1392 256 1392 224
WIRE 1408 256 1392 256
WIRE 208 272 208 240
WIRE 528 272 528 240
WIRE 1552 272 1552 208
WIRE 1552 272 1472 272
WIRE 784 288 784 240
WIRE 960 288 960 272
WIRE 960 288 784 288
WIRE 1408 288 960 288
WIRE 1552 288 1552 272
WIRE 960 304 960 288
WIRE 208 464 208 352
WIRE 528 464 528 352
WIRE 528 464 208 464
WIRE 656 464 656 272
WIRE 656 464 528 464
WIRE 656 496 656 464
FLAG 656 496 0
FLAG 656 -16 0
FLAG 960 384 0
FLAG 944 80 0
FLAG 1440 304 0
FLAG 1296 144 0
FLAG 1280 240 0
DATAFLAG 1152 288 ""
SYMBOL res 512 256 R0
SYMATTR InstName R1
SYMATTR Value 1000000000
SYMATTR SpiceLine tol=5
SYMBOL njf 608 176 R0
SYMATTR InstName J1
SYMATTR Value J113
SYMBOL voltage 208 256 R0
WINDOW 123 24 152 Left 2
WINDOW 39 24 124 Left 2
SYMATTR Value2 AC 0.000115948
SYMATTR SpiceLine Cpar=0.000000000045
SYMATTR InstName V1
SYMATTR Value SINE(0 0.000115948 1000)
SYMBOL voltage 800 -48 R90
WINDOW 123 0 0 Left 0
WINDOW 39 0 0 Left 0
SYMATTR InstName V2
SYMATTR Value 4.5
SYMBOL res 768 16 R0
SYMATTR InstName R2
SYMATTR Value 250
SYMBOL cap 768 176 R0
SYMATTR InstName C1
SYMATTR Value 0.0000022
SYMBOL res 944 176 R0
SYMATTR InstName R3
SYMATTR Value 1000000
SYMBOL res 944 288 R0
SYMATTR InstName R4
SYMATTR Value 1000000
SYMBOL voltage 960 208 R180
WINDOW 0 24 96 Left 2
WINDOW 3 24 16 Left 2
WINDOW 123 0 0 Left 0
WINDOW 39 0 0 Left 0
SYMATTR InstName V3
SYMATTR Value 3.3
SYMBOL OpAmps\\OP07 1440 208 R0
SYMATTR InstName U1
SYMBOL voltage 1408 112 R90
WINDOW 0 -32 56 VBottom 2
WINDOW 3 32 56 VTop 2
WINDOW 123 0 0 Left 0
WINDOW 39 0 0 Left 0
SYMATTR InstName V4
SYMATTR Value 5
SYMBOL res 1408 208 R90
WINDOW 0 0 56 VBottom 2
WINDOW 3 32 56 VTop 2
SYMATTR InstName R5
SYMATTR Value 2150
TEXT 168 520 Left 2 !.tran 0.01
TEXT 168 552 Left 2 ;.ac lin 5000 1 1000
